test/TEST190523/v_h7.csv
Bus, BasekV, Node1, Magnitude1, Angle1, pu1, Node2, Magnitude2, Angle2, pu2, Node3, Magnitude3, Angle3, pu3
"SOURCEBUS", 69, 1,    41815.8,   -0.2,    1.0497, 2,    41810.8, -120.2,    1.0495, 3,    41783.4,  119.8,    1.0489
"BUSMVMAI1", 12.8, 1,    7753.16,  -30.6,    1.0491, 2,    7757.59, -150.7,    1.0497, 3,    7741.08,   89.1,    1.0475
"BUSMVMAI136", 12.505, 1,    7753.15,  -30.6,    1.0738, 2,    7757.54, -150.7,    1.0745, 3,    7741.01,   89.1,    1.0722
"BUSMVMAI3", 12.505, 1,    7742.55,  -31.2,    1.0724, 2,    7715.15, -151.0,    1.0686, 3,    7684.15,   88.2,    1.0643
"BUSMVMAI2", 12.505, 1,    7742.52,  -31.2,    1.0724, 2,    7715.03, -151.0,    1.0686, 3,    7683.99,   88.2,    1.0643
"BUSMVMAI4", 12.505, 1,    7742.23,  -31.2,    1.0723, 2,    7713.83, -151.1,    1.0684, 3,    7682.41,   88.2,     1.064
"BUSMVMAI46", 12.505, 1,    7742.56,  -31.2,    1.0724, 2,     7715.2, -151.0,    1.0686, 3,    7684.21,   88.2,    1.0643
"BUSMVMAI5", 12.505, 1,    7741.71,  -31.2,    1.0723, 2,    7712.48, -151.1,    1.0682, 3,    7680.69,   88.2,    1.0638
"BUSMVMAI862", 12.505, 1,    7742.23,  -31.2,    1.0723, 0, 0, 0, 0, 0, 0, 0, 0
"BUSMVMAI6", 12.505, 1,    7741.61,  -31.2,    1.0722, 2,    7712.23, -151.1,    1.0682, 3,    7680.38,   88.2,    1.0638
"BUSMVMAI859", 12.505, 3,    7680.66,   88.2,    1.0638, 0, 0, 0, 0, 0, 0, 0, 0
"BUSMVMAI860", 12.505, 3,    7680.69,   88.2,    1.0638, 0, 0, 0, 0, 0, 0, 0, 0
"BUSMVMAI7", 12.505, 1,    7740.91,  -31.2,    1.0721, 2,    7711.13, -151.1,     1.068, 3,    7678.97,   88.2,    1.0636
"BUSMVMAI8", 12.505, 1,    7741.26,  -31.2,    1.0722, 2,    7709.27, -151.1,    1.0678, 3,    7677.86,   88.1,    1.0634
"BUSMVMAI9", 12.505, 1,    7740.91,  -31.2,    1.0721, 2,    7711.13, -151.1,     1.068, 3,    7678.97,   88.2,    1.0636
"BUSMVMAI10", 12.505, 1,    7740.35,  -31.2,    1.0721, 2,    7711.17, -151.1,     1.068, 3,    7678.58,   88.2,    1.0635
"BUSMVMAI56", 12.505, 1,    7740.63,  -31.2,    1.0721, 2,    7711.15, -151.1,     1.068, 3,    7678.78,   88.2,    1.0635
"BUSMVMAI861", 12.505, 3,     7680.6,   88.2,    1.0638, 0, 0, 0, 0, 0, 0, 0, 0
"BUSMVMAI12", 12.505, 1,    7741.56,  -31.2,    1.0722, 2,    7707.75, -151.1,    1.0676, 3,    7676.95,   88.1,    1.0633
"BUSMVMAI51", 12.505, 1,    7741.26,  -31.2,    1.0722, 2,    7709.27, -151.1,    1.0678, 3,    7677.86,   88.1,    1.0634
"BUSMVMAI2171", 12.505, 1,    7741.26,  -31.2,    1.0722, 0, 0, 0, 0, 0, 0, 0, 0
"BUSMVMAI863", 12.505, 3,    7680.55,   88.2,    1.0638, 0, 0, 0, 0, 0, 0, 0, 0
"BUSMVMAI2165", 12.505, 3,    7678.97,   88.2,    1.0636, 0, 0, 0, 0, 0, 0, 0, 0
"BUSMVMAI694", 12.505, 1,    7740.91,  -31.2,    1.0721, 2,    7711.13, -151.1,     1.068, 3,    7678.97,   88.2,    1.0636
"BUSMVMAI122", 12.505, 1,    7740.32,  -31.2,    1.0721, 2,    7711.17, -151.1,     1.068, 3,    7678.56,   88.2,    1.0635
"BUSMVMAI11", 12.505, 1,    7741.55,  -31.2,    1.0722, 2,    7707.74, -151.1,    1.0676, 3,    7676.95,   88.1,    1.0633
"BUSMVMAI13", 12.505, 1,    7741.55,  -31.2,    1.0722, 2,    7707.73, -151.1,    1.0676, 3,    7676.96,   88.1,    1.0633
"BUSMVMAI18", 12.505, 1,    7741.67,  -31.2,    1.0723, 2,     7707.2, -151.1,    1.0675, 3,     7676.6,   88.1,    1.0632
"BUSMVMAI14", 12.505, 1,    7741.54,  -31.2,    1.0722, 2,    7707.69, -151.1,    1.0675, 3,    7676.98,   88.1,    1.0633
"BUSMVMAI15", 12.505, 1,    7741.54,  -31.2,    1.0722, 2,    7707.65, -151.1,    1.0675, 3,       7677,   88.1,    1.0633
"BUSMVMAI16", 12.505, 1,    7741.54,  -31.2,    1.0722, 2,    7707.65, -151.1,    1.0675, 3,    7676.99,   88.1,    1.0633
"BUSMVMAI2166", 12.505, 2,    7707.65, -151.1,    1.0675, 0, 0, 0, 0, 0, 0, 0, 0
"BUSMVMAI2172", 12.505, 1,    7742.22,  -31.2,    1.0723, 0, 0, 0, 0, 0, 0, 0, 0
"BUSMVMAI864", 12.505, 3,    7680.51,   88.2,    1.0638, 0, 0, 0, 0, 0, 0, 0, 0
"BUSMVMAI865", 12.505, 3,    7680.45,   88.2,    1.0638, 0, 0, 0, 0, 0, 0, 0, 0
"BUSMVMAI17", 12.505, 1,    7741.54,  -31.2,    1.0722, 2,    7707.65, -151.1,    1.0675, 3,    7676.99,   88.1,    1.0633
"BUSMVMAI695", 12.505, 1,    7741.54,  -31.2,    1.0722, 2,    7707.65, -151.1,    1.0675, 3,    7676.99,   88.1,    1.0633
"BUSMVMAI866", 12.505, 3,    7680.45,   88.2,    1.0638, 0, 0, 0, 0, 0, 0, 0, 0
"BUSMVMAI2176", 12.505, 3,    7680.45,   88.2,    1.0638, 0, 0, 0, 0, 0, 0, 0, 0
"BUSMVMAI2177", 12.505, 3,    7680.45,   88.2,    1.0638, 0, 0, 0, 0, 0, 0, 0, 0
"BUSMVMAI2178", 12.505, 3,    7680.41,   88.2,    1.0638, 0, 0, 0, 0, 0, 0, 0, 0
"BUSMVMAI19", 12.505, 1,    7741.89,  -31.3,    1.0723, 2,    7706.18, -151.1,    1.0673, 3,    7675.98,   88.1,    1.0632
"BUSMVMAI20", 12.505, 1,     7742.2,  -31.3,    1.0723, 2,    7704.76, -151.1,    1.0671, 3,    7675.11,   88.1,     1.063
"BUSMVMAI53", 12.505, 1,    7741.89,  -31.3,    1.0723, 2,    7706.18, -151.1,    1.0673, 3,    7675.98,   88.1,    1.0632
"BUSMVMAI21", 12.505, 1,    7742.53,  -31.3,    1.0724, 2,    7703.27, -151.1,    1.0669, 3,    7674.19,   88.1,    1.0629
"BUSMVMAI22", 12.505, 1,    7742.91,  -31.3,    1.0724, 2,    7701.51, -151.1,    1.0667, 3,    7673.13,   88.0,    1.0628
"BUSMVMAI23", 12.505, 1,    7742.53,  -31.3,    1.0724, 2,    7703.27, -151.1,    1.0669, 3,    7674.19,   88.1,    1.0629
"BUSMVMAI25", 12.505, 1,    7743.31,  -31.3,    1.0725, 2,    7699.69, -151.1,    1.0664, 3,    7672.04,   88.0,    1.0626
"BUSMVMAI52", 12.505, 1,    7742.91,  -31.3,    1.0724, 2,    7701.51, -151.1,    1.0667, 3,    7673.13,   88.0,    1.0628
"BUSMVMAI54", 12.505, 1,    7742.91,  -31.3,    1.0724, 2,    7701.51, -151.1,    1.0667, 3,    7673.13,   88.0,    1.0628
"BUSMVMAI55", 12.505, 1,    7742.91,  -31.3,    1.0724, 2,    7701.51, -151.1,    1.0667, 3,    7673.13,   88.0,    1.0628
"BUSMVMAI696", 12.505, 1,    7742.53,  -31.3,    1.0724, 2,    7703.27, -151.1,    1.0669, 3,    7674.19,   88.1,    1.0629
"BUSMVMAI24", 12.505, 1,    7743.35,  -31.3,    1.0725, 2,    7699.52, -151.1,    1.0664, 3,    7671.94,   88.0,    1.0626
"BUSMVMAI26", 12.505, 1,    7743.74,  -31.3,    1.0725, 2,     7697.7, -151.1,    1.0662, 3,    7670.86,   88.0,    1.0624
"BUSMVMAI49", 12.505, 1,    7743.31,  -31.3,    1.0725, 2,    7699.69, -151.1,    1.0664, 3,    7672.04,   88.0,    1.0626
"BUSMVMAI50", 12.505, 1,    7743.31,  -31.3,    1.0725, 2,    7699.69, -151.1,    1.0664, 3,    7672.04,   88.0,    1.0626
"BUSMVMAI27", 12.505, 1,    7743.73,  -31.3,    1.0725, 2,    7697.71, -151.1,    1.0662, 3,    7670.85,   88.0,    1.0624
"BUSMVMAI28", 12.505, 1,    7744.05,  -31.3,    1.0726, 2,    7696.31, -151.1,     1.066, 3,    7670.04,   88.0,    1.0623
"BUSMVMAI29", 12.505, 1,    7743.71,  -31.3,    1.0725, 2,    7697.72, -151.1,    1.0662, 3,    7670.84,   88.0,    1.0624
"BUSMVMAI31", 12.505, 1,    7744.41,  -31.3,    1.0726, 2,    7694.69, -151.1,    1.0657, 3,    7669.09,   87.9,    1.0622
"BUSMVMAI30", 12.505, 1,    7743.69,  -31.3,    1.0725, 2,    7697.74, -151.1,    1.0662, 3,    7670.83,   88.0,    1.0624
"BUSMVMAI34", 12.505, 1,    7743.67,  -31.3,    1.0725, 2,    7697.75, -151.1,    1.0662, 3,    7670.82,   88.0,    1.0624
"BUSMVMAI867", 12.505, 1,    7744.37,  -31.3,    1.0726, 0, 0, 0, 0, 0, 0, 0, 0
"BUSMVMAI43", 12.505, 1,    7744.42,  -31.3,    1.0726, 2,    7694.65, -151.1,    1.0657, 3,    7669.07,   87.9,    1.0622
"BUSMVMAI871", 12.505, 2,    7694.69, -151.1,    1.0657, 0, 0, 0, 0, 0, 0, 0, 0
"BUSMVMAI33", 12.505, 1,    7744.53,  -31.3,    1.0727, 2,    7694.18, -151.1,    1.0657, 3,     7668.8,   87.9,    1.0622
"BUSMVMAI32", 12.505, 1,    7744.86,  -31.3,    1.0727, 2,    7692.79, -151.1,    1.0655, 3,    7668.01,   87.9,    1.0621
"BUSMVMAI37", 12.505, 1,    7745.29,  -31.3,    1.0728, 2,    7690.88, -151.2,    1.0652, 3,    7666.96,   87.9,    1.0619
"BUSMVMAI44", 12.505, 1,    7744.43,  -31.3,    1.0726, 2,    7694.61, -151.1,    1.0657, 3,    7669.04,   87.9,    1.0622
"BUSMVMAI35", 12.505, 1,    7743.67,  -31.3,    1.0725, 2,    7697.75, -151.1,    1.0662, 3,    7670.81,   88.0,    1.0624
"BUSMVMAI36", 12.505, 1,    7743.67,  -31.3,    1.0725, 2,    7697.75, -151.1,    1.0662, 3,    7670.81,   88.0,    1.0624
"BUSMVMAI869", 12.505, 1,    7744.37,  -31.3,    1.0726, 0, 0, 0, 0, 0, 0, 0, 0
"BUSMVMAI38", 12.505, 1,    7745.63,  -31.3,    1.0728, 2,    7689.37, -151.2,     1.065, 3,    7666.13,   87.9,    1.0618
"BUSMVMAI2181", 12.505, 1,    7745.28,  -31.3,    1.0728, 0, 0, 0, 0, 0, 0, 0, 0
"BUSMVMAI868", 12.505, 1,    7744.29,  -31.3,    1.0726, 0, 0, 0, 0, 0, 0, 0, 0
"BUSMVMAI870", 12.505, 1,    7744.22,  -31.3,    1.0726, 0, 0, 0, 0, 0, 0, 0, 0
"BUSMVMAI39", 12.505, 1,    7745.66,  -31.3,    1.0728, 2,    7689.36, -151.2,     1.065, 3,    7666.09,   87.9,    1.0618
"BUSMVMAI40", 12.505, 1,    7745.94,  -31.3,    1.0728, 2,    7687.89, -151.2,    1.0648, 3,    7665.35,   87.8,    1.0617
"BUSMVMAI697", 12.505, 1,    7745.68,  -31.3,    1.0728, 2,    7689.37, -151.2,     1.065, 3,    7665.96,   87.9,    1.0618
"BUSMVMAI41", 12.505, 1,    7746.29,  -31.3,    1.0729, 2,    7686.19, -151.2,    1.0646, 3,    7664.43,   87.8,    1.0616
"BUSMVMAI42", 12.505, 1,    7746.32,  -31.3,    1.0729, 2,    7686.17, -151.2,    1.0646, 3,     7664.4,   87.8,    1.0616
"BUSMVMAI48", 12.505, 1,    7746.56,  -31.3,    1.0729, 2,    7684.78, -151.2,    1.0644, 3,     7663.7,   87.8,    1.0615
"BUSMVMAI303", 12.505, 1,    7746.43,  -31.3,    1.0729, 2,    7685.49, -151.2,    1.0645, 3,    7664.06,   87.8,    1.0615
"BUSMVMAI45", 12.505, 1,    7746.33,  -31.3,    1.0729, 2,    7686.16, -151.2,    1.0646, 3,    7664.38,   87.8,    1.0615
"BUSMVMAI701", 12.505, 1,    7746.33,  -31.3,    1.0729, 2,    7686.17, -151.2,    1.0646, 3,    7664.36,   87.8,    1.0615
"BUSMVMAI47", 12.505, 1,    7742.69,  -31.2,    1.0724, 2,    7715.73, -151.0,    1.0687, 3,    7684.91,   88.2,    1.0644
"BUSMVMAI179", 12.505, 1,    7742.63,  -31.2,    1.0724, 2,    7715.46, -151.0,    1.0686, 3,    7684.56,   88.2,    1.0643
"BUSMVMAI160", 12.505, 1,       7743,  -31.2,    1.0724, 2,    7716.99, -151.0,    1.0688, 3,    7686.58,   88.3,    1.0646
"BUSMVMAI1103", 12.505, 1,     7746.5,  -31.3,    1.0729, 0, 0, 0, 0, 0, 0, 0, 0
"BUSMVMAI259", 12.505, 1,    7746.73,  -31.3,     1.073, 2,    7684.06, -151.2,    1.0643, 3,    7663.37,   87.8,    1.0614
"BUSMVMAI304", 12.505, 1,    7746.56,  -31.3,    1.0729, 2,    7684.78, -151.2,    1.0644, 3,     7663.7,   87.8,    1.0615
"BUSMVMAI702", 12.505, 1,    7743.31,  -31.3,    1.0725, 2,    7699.69, -151.1,    1.0664, 3,    7672.04,   88.0,    1.0626
"BUSMVMAI58", 12.505, 1,    7739.96,  -31.2,     1.072, 2,     7711.2, -151.1,     1.068, 3,    7678.32,   88.2,    1.0635
"BUSMVMAI57", 12.505, 1,    7738.64,  -31.3,    1.0718, 2,    7711.31, -151.1,     1.068, 3,    7677.41,   88.2,    1.0634
"BUSMVMAI60", 12.505, 1,    7738.09,  -31.3,    1.0718, 2,    7711.36, -151.1,    1.0681, 3,    7677.03,   88.2,    1.0633
"BUSMVMAI703", 12.505, 1,    7738.64,  -31.3,    1.0718, 2,    7711.31, -151.1,     1.068, 3,     7677.4,   88.2,    1.0634
"BUSMVMAI123", 12.505, 1,    7740.29,  -31.2,    1.0721, 2,    7711.18, -151.1,     1.068, 3,    7678.54,   88.2,    1.0635
"BUSMVMAI59", 12.505, 1,    7737.31,  -31.3,    1.0716, 2,    7711.45, -151.1,    1.0681, 3,    7676.63,   88.2,    1.0632
"BUSMVMAI61", 12.505, 1,    7736.01,  -31.3,    1.0715, 2,     7711.6, -151.1,    1.0681, 3,    7675.96,   88.2,    1.0632
"BUSMVMAI63", 12.505, 1,    7738.12,  -31.3,    1.0718, 2,    7711.33, -151.1,    1.0681, 3,    7676.97,   88.2,    1.0633
"BUSMVMAI874", 12.505, 3,    7677.03,   88.2,    1.0633, 0, 0, 0, 0, 0, 0, 0, 0
"BUSMVMAI62", 12.505, 1,    7734.74,  -31.3,    1.0713, 2,    7711.69, -151.1,    1.0681, 3,     7675.3,   88.2,    1.0631
"BUSMVMAI64", 12.505, 1,    7733.36,  -31.3,    1.0711, 2,    7711.82, -151.1,    1.0681, 3,     7674.8,   88.2,     1.063
"BUSMVMAI942", 12.505, 3,    7675.29,   88.2,    1.0631, 0, 0, 0, 0, 0, 0, 0, 0
"BUSMVMAI873", 12.505, 3,    7675.29,   88.2,    1.0631, 0, 0, 0, 0, 0, 0, 0, 0
"BUSMVMAI872", 12.505, 3,    7675.02,   88.2,     1.063, 0, 0, 0, 0, 0, 0, 0, 0
"BUSMVMAI880", 12.505, 3,    7675.02,   88.2,     1.063, 0, 0, 0, 0, 0, 0, 0, 0
"BUSMVMAI945", 12.505, 3,    7676.96,   88.2,    1.0633, 0, 0, 0, 0, 0, 0, 0, 0
"BUSMVMAI65", 12.505, 1,    7731.91,  -31.3,    1.0709, 2,    7711.92, -151.1,    1.0681, 3,    7674.27,   88.2,    1.0629
"BUSMVMAI66", 12.505, 1,    7730.45,  -31.3,    1.0707, 2,    7712.02, -151.1,    1.0681, 3,    7673.73,   88.2,    1.0628
"BUSMVMAI67", 12.505, 1,    7728.87,  -31.3,    1.0705, 2,    7712.13, -151.1,    1.0682, 3,    7673.14,   88.2,    1.0628
"BUSMVMAI878", 12.505, 1,    7728.81,  -31.3,    1.0705, 0, 0, 0, 0, 0, 0, 0, 0
"BUSMVMAI68", 12.505, 1,    7727.69,  -31.3,    1.0703, 2,    7712.19, -151.1,    1.0682, 3,    7672.71,   88.2,    1.0627
"BUSMVMAI706", 12.505, 1,    7728.87,  -31.3,    1.0705, 2,    7712.13, -151.1,    1.0682, 3,    7673.14,   88.2,    1.0628
"BUSMVMAI876", 12.505, 3,    7676.95,   88.2,    1.0633, 0, 0, 0, 0, 0, 0, 0, 0
"BUSMVMAI875", 12.505, 3,    7676.74,   88.2,    1.0633, 0, 0, 0, 0, 0, 0, 0, 0
"BUSMVMAI877", 12.505, 3,    7676.67,   88.2,    1.0633, 0, 0, 0, 0, 0, 0, 0, 0
"BUSMVMAI883", 12.505, 3,     7676.5,   88.2,    1.0632, 0, 0, 0, 0, 0, 0, 0, 0
"BUSMVMAI884", 12.505, 3,    7676.66,   88.2,    1.0632, 0, 0, 0, 0, 0, 0, 0, 0
"BUSMVMAI886", 12.505, 3,    7676.66,   88.2,    1.0632, 0, 0, 0, 0, 0, 0, 0, 0
"BUSMVMAI885", 12.505, 1,    7728.72,  -31.3,    1.0705, 0, 0, 0, 0, 0, 0, 0, 0
"BUSMVMAI879", 12.505, 3,    7674.65,   88.2,     1.063, 0, 0, 0, 0, 0, 0, 0, 0
"BUSMVMAI881", 12.505, 3,    7674.61,   88.2,     1.063, 0, 0, 0, 0, 0, 0, 0, 0
"BUSMVMAI888", 12.505, 3,    7674.59,   88.2,     1.063, 0, 0, 0, 0, 0, 0, 0, 0
"BUSMVMAI882", 12.505, 3,    7674.59,   88.2,     1.063, 0, 0, 0, 0, 0, 0, 0, 0
"BUSMVMAI944", 12.505, 3,    7674.59,   88.2,     1.063, 0, 0, 0, 0, 0, 0, 0, 0
"BUSMVMAI889", 12.505, 3,    7676.37,   88.2,    1.0632, 0, 0, 0, 0, 0, 0, 0, 0
"BUSMVMAI2183", 12.505, 3,    7676.66,   88.2,    1.0632, 0, 0, 0, 0, 0, 0, 0, 0
"BUSMVMAI2184", 12.505, 3,    7676.66,   88.2,    1.0632, 0, 0, 0, 0, 0, 0, 0, 0
"BUSMVMAI71", 12.505, 1,    7726.56,  -31.3,    1.0702, 2,    7712.22, -151.1,    1.0682, 3,    7672.29,   88.2,    1.0626
"BUSMVMAI2182", 12.505, 1,    7728.71,  -31.3,    1.0705, 0, 0, 0, 0, 0, 0, 0, 0
"BUSMVMAI2185", 12.505, 1,    7728.72,  -31.3,    1.0705, 0, 0, 0, 0, 0, 0, 0, 0
"BUSMVMAI2186", 12.505, 1,    7728.66,  -31.3,    1.0705, 0, 0, 0, 0, 0, 0, 0, 0
"BUSMVMAI887", 12.505, 3,    7676.64,   88.2,    1.0632, 0, 0, 0, 0, 0, 0, 0, 0
"BUSMVMAI892", 12.505, 3,    7676.62,   88.2,    1.0632, 0, 0, 0, 0, 0, 0, 0, 0
"BUSMVMAI897", 12.505, 3,    7674.53,   88.2,     1.063, 0, 0, 0, 0, 0, 0, 0, 0
"BUSMVMAI890", 12.505, 3,    7676.26,   88.2,    1.0632, 0, 0, 0, 0, 0, 0, 0, 0
"BUSMVMAI891", 12.505, 3,    7676.19,   88.2,    1.0632, 0, 0, 0, 0, 0, 0, 0, 0
"BUSMVMAI896", 12.505, 3,    7676.17,   88.2,    1.0632, 0, 0, 0, 0, 0, 0, 0, 0
"BUSMVMAI893", 12.505, 3,    7676.61,   88.2,    1.0632, 0, 0, 0, 0, 0, 0, 0, 0
"BUSMVMAI894", 12.505, 3,    7676.59,   88.2,    1.0632, 0, 0, 0, 0, 0, 0, 0, 0
"BUSMVMAI895", 12.505, 3,    7676.59,   88.2,    1.0632, 0, 0, 0, 0, 0, 0, 0, 0
"BUSMVMAI898", 12.505, 3,    7676.58,   88.2,    1.0632, 0, 0, 0, 0, 0, 0, 0, 0
"BUSMVMAI70", 12.505, 1,    7728.88,  -31.3,    1.0705, 2,    7712.14, -151.1,    1.0682, 3,     7673.1,   88.2,    1.0628
"BUSMVMAI69", 12.505, 1,    7728.88,  -31.3,    1.0705, 2,    7712.14, -151.1,    1.0682, 3,     7673.1,   88.2,    1.0628
"BUSMVMAI708", 12.505, 1,    7728.88,  -31.3,    1.0705, 2,    7712.14, -151.1,    1.0682, 3,    7673.11,   88.2,    1.0628
"BUSMVMAI72", 12.505, 1,    7725.07,  -31.3,      1.07, 2,    7712.25, -151.1,    1.0682, 3,    7671.74,   88.2,    1.0626
"BUSMVMAI73", 12.505, 1,    7723.64,  -31.4,    1.0698, 2,    7712.31, -151.1,    1.0682, 3,    7671.31,   88.2,    1.0625
"BUSMVMAI134", 12.505, 1,    7725.07,  -31.3,      1.07, 2,    7712.25, -151.1,    1.0682, 3,    7671.74,   88.2,    1.0626
"BUSMVMAI900", 12.505, 3,    7674.47,   88.2,    1.0629, 0, 0, 0, 0, 0, 0, 0, 0
"BUSMVMAI904", 12.505, 3,    7676.58,   88.2,    1.0632, 0, 0, 0, 0, 0, 0, 0, 0
"BUSMVMAI75", 12.505, 1,    7722.93,  -31.4,    1.0697, 2,    7712.39, -151.1,    1.0682, 3,    7671.08,   88.2,    1.0625
"BUSMVMAI718", 12.505, 1,    7723.64,  -31.4,    1.0698, 2,    7712.31, -151.1,    1.0682, 3,    7671.31,   88.2,    1.0625
"BUSMVMAI899", 12.505, 3,    7674.47,   88.2,    1.0629, 0, 0, 0, 0, 0, 0, 0, 0
"BUSMVMAI902", 12.505, 3,    7674.44,   88.2,    1.0629, 0, 0, 0, 0, 0, 0, 0, 0
"BUSMVMAI901", 12.505, 3,    7674.42,   88.2,    1.0629, 0, 0, 0, 0, 0, 0, 0, 0
"BUSMVMAI903", 12.505, 3,    7674.38,   88.2,    1.0629, 0, 0, 0, 0, 0, 0, 0, 0
"BUSMVMAI905", 12.505, 3,    7674.34,   88.2,    1.0629, 0, 0, 0, 0, 0, 0, 0, 0
"BUSMVMAI907", 12.505, 3,    7674.38,   88.2,    1.0629, 0, 0, 0, 0, 0, 0, 0, 0
"BUSMVMAI906", 12.505, 3,    7674.33,   88.2,    1.0629, 0, 0, 0, 0, 0, 0, 0, 0
"BUSMVMAI946", 12.505, 3,    7674.33,   88.2,    1.0629, 0, 0, 0, 0, 0, 0, 0, 0
"BUSMVMAI74", 12.505, 1,    7722.93,  -31.4,    1.0697, 2,    7712.39, -151.1,    1.0682, 3,    7671.08,   88.2,    1.0625
"BUSMVMAI76", 12.505, 1,     7722.8,  -31.4,    1.0696, 2,    7712.49, -151.1,    1.0682, 3,    7671.02,   88.2,    1.0625
"BUSMVMAI77", 12.505, 1,    7722.53,  -31.4,    1.0696, 2,    7712.38, -151.1,    1.0682, 3,    7670.96,   88.2,    1.0625
"BUSMVMAI79", 12.505, 1,    7722.79,  -31.4,    1.0696, 2,     7712.5, -151.1,    1.0682, 3,    7671.01,   88.2,    1.0625
"BUSMVMAI81", 12.505, 1,    7722.51,  -31.4,    1.0696, 2,    7712.29, -151.1,    1.0682, 3,       7671,   88.2,    1.0625
"BUSMVMAI91", 12.505, 1,    7721.51,  -31.4,    1.0695, 2,    7712.43, -151.1,    1.0682, 3,    7670.61,   88.2,    1.0624
"BUSMVMAI78", 12.505, 1,    7722.54,  -31.4,    1.0696, 2,    7712.67, -151.1,    1.0682, 3,     7670.9,   88.2,    1.0625
"BUSMVMAI80", 12.505, 1,    7722.29,  -31.4,    1.0696, 2,    7712.85, -151.1,    1.0683, 3,    7670.78,   88.2,    1.0624
"BUSMVMAI908", 12.505, 1,    7722.17,  -31.4,    1.0696, 0, 0, 0, 0, 0, 0, 0, 0
"BUSMVMAI89", 12.505, 1,     7722.2,  -31.4,    1.0696, 2,    7712.92, -151.1,    1.0683, 3,    7670.73,   88.2,    1.0624
"BUSMVMAI949", 12.505, 3,    7674.38,   88.2,    1.0629, 0, 0, 0, 0, 0, 0, 0, 0
"BUSMVMAI82", 12.505, 1,    7722.49,  -31.4,    1.0696, 2,    7712.23, -151.1,    1.0682, 3,    7671.03,   88.2,    1.0625
"BUSMVMAI83", 12.505, 1,    7722.49,  -31.4,    1.0696, 2,    7712.22, -151.1,    1.0682, 3,    7671.02,   88.2,    1.0625
"BUSMVMAI86", 12.505, 1,     7722.5,  -31.4,    1.0696, 2,     7712.2, -151.1,    1.0682, 3,    7671.01,   88.2,    1.0625
"BUSMVMAI85", 12.505, 1,    7723.63,  -31.4,    1.0698, 2,    7712.22, -151.1,    1.0682, 3,    7671.28,   88.2,    1.0625
"BUSMVMAI84", 12.505, 1,    7723.59,  -31.4,    1.0697, 2,    7712.13, -151.1,    1.0682, 3,    7671.29,   88.2,    1.0625
"BUSMVMAI93", 12.505, 1,    7723.56,  -31.4,    1.0697, 2,    7712.08, -151.1,    1.0682, 3,     7671.3,   88.2,    1.0625
"BUSMVMAI2198", 12.505, 2,    7712.13, -151.1,    1.0682, 0, 0, 0, 0, 0, 0, 0, 0
"BUSMVMAI709", 12.505, 1,    7723.64,  -31.4,    1.0698, 2,    7712.31, -151.1,    1.0682, 3,     7671.3,   88.2,    1.0625
"BUSMVMAI88", 12.505, 1,     7722.5,  -31.4,    1.0696, 2,    7712.19, -151.1,    1.0682, 3,       7671,   88.2,    1.0625
"BUSMVMAI87", 12.505, 1,    7722.51,  -31.4,    1.0696, 2,    7712.18, -151.1,    1.0682, 3,    7670.99,   88.2,    1.0625
"BUSMVMAI99", 12.505, 1,    7722.51,  -31.4,    1.0696, 2,    7712.17, -151.1,    1.0682, 3,    7670.99,   88.2,    1.0625
"BUSMVMAI722", 12.505, 1,    7722.51,  -31.4,    1.0696, 2,    7712.18, -151.1,    1.0682, 3,    7670.98,   88.2,    1.0625
"BUSMVMAI909", 12.505, 1,    7722.05,  -31.4,    1.0695, 0, 0, 0, 0, 0, 0, 0, 0
"BUSMVMAI90", 12.505, 1,    7722.15,  -31.4,    1.0696, 2,    7712.96, -151.1,    1.0683, 3,    7670.68,   88.2,    1.0624
"BUSMVMAI102", 12.505, 1,    7722.09,  -31.4,    1.0695, 2,    7713.01, -151.1,    1.0683, 3,    7670.63,   88.2,    1.0624
"BUSMVMAI92", 12.505, 1,    7720.62,  -31.4,    1.0693, 2,    7712.48, -151.1,    1.0682, 3,     7670.3,   88.2,    1.0624
"BUSMVMAI132", 12.505, 1,    7721.51,  -31.4,    1.0695, 2,    7712.43, -151.1,    1.0682, 3,    7670.61,   88.2,    1.0624
"BUSMVMAI98", 12.505, 1,    7720.62,  -31.4,    1.0693, 2,    7712.48, -151.1,    1.0682, 3,     7670.3,   88.2,    1.0624
"BUSMVMAI100", 12.505, 1,    7719.49,  -31.4,    1.0692, 2,    7712.61, -151.1,    1.0682, 3,    7669.89,   88.2,    1.0623
"BUSMVMAI723", 12.505, 1,    7720.62,  -31.4,    1.0693, 2,    7712.47, -151.1,    1.0682, 3,    7670.31,   88.2,    1.0624
"BUSMVMAI96", 12.505, 1,    7723.54,  -31.4,    1.0697, 2,    7712.02, -151.1,    1.0681, 3,     7671.3,   88.2,    1.0625
"BUSMVMAI916", 12.505, 1,    7723.55,  -31.4,    1.0697, 0, 0, 0, 0, 0, 0, 0, 0
"BUSMVMAI95", 12.505, 1,    7720.62,  -31.4,    1.0693, 2,    7712.42, -151.1,    1.0682, 3,    7670.31,   88.2,    1.0624
"BUSMVMAI94", 12.505, 1,     7720.6,  -31.4,    1.0693, 2,    7712.36, -151.1,    1.0682, 3,    7670.33,   88.2,    1.0624
"BUSMVMAI112", 12.505, 1,     7720.6,  -31.4,    1.0693, 2,    7712.36, -151.1,    1.0682, 3,    7670.32,   88.2,    1.0624
"BUSMVMAI126", 12.505, 1,    7720.62,  -31.4,    1.0693, 2,    7712.42, -151.1,    1.0682, 3,    7670.31,   88.2,    1.0624
"BUSMVMAI97", 12.505, 1,    7723.51,  -31.4,    1.0697, 2,    7711.94, -151.1,    1.0681, 3,    7671.31,   88.2,    1.0625
"BUSMVMAI711", 12.505, 1,    7723.54,  -31.4,    1.0697, 2,    7712.02, -151.1,    1.0681, 3,     7671.3,   88.2,    1.0625
"BUSMVMAI915", 12.505, 1,     7723.5,  -31.4,    1.0697, 0, 0, 0, 0, 0, 0, 0, 0
...
"BUSLVMAI1", 0.20785, 1,    127.614,   88.2,    1.0635, 2,     127.63,  -91.8,    1.0636, 0, 0, 0, 0
"BUSLVMAI2", 0.20785, 1,    127.547,   88.1,    1.0629, 2,     127.56,  -91.9,     1.063, 0, 0, 0, 0
"BUSLVMAI3", 0.20785, 1,    127.587,   88.2,    1.0632, 2,    127.603,  -91.8,    1.0634, 0, 0, 0, 0
"BUSLVMAI4", 0.20785, 1,    128.219,  -31.5,    1.0685, 2,    128.313,  148.5,    1.0693, 0, 0, 0, 0
"BUSLVMAI5", 0.20785, 1,    127.527, -151.2,    1.0627, 2,    127.589,   28.8,    1.0632, 0, 0, 0, 0
"BUSLVMAI6", 0.20785, 1,    127.453,   88.0,    1.0621, 2,    127.469,  -92.0,    1.0622, 0, 0, 0, 0
"BUSLVMAI7", 0.20785, 1,     127.62,   88.2,    1.0635, 2,    127.634,  -91.8,    1.0636, 0, 0, 0, 0
"BUSLVMAI8", 0.20785, 1,    127.138,   88.0,    1.0595, 2,    127.159,  -92.0,    1.0597, 0, 0, 0, 0
"BUSLVMAI9", 0.20785, 1,    127.009,   87.7,    1.0584, 2,    127.022,  -92.3,    1.0585, 0, 0, 0, 0
"BUSLVMAI10", 0.20785, 1,    127.119,   87.7,    1.0593, 2,    127.132,  -92.3,    1.0594, 0, 0, 0, 0
"BUSLVMAI11", 0.20785, 1,    128.049, -151.1,    1.0671, 2,    128.062,   28.9,    1.0672, 0, 0, 0, 0
"BUSLVMAI12", 0.20785, 1,    128.016, -151.1,    1.0668, 2,    128.031,   28.9,    1.0669, 0, 0, 0, 0
"BUSLVMAI13", 0.20785, 1,    128.618,  -31.2,    1.0718, 2,    128.634,  148.8,    1.0719, 0, 0, 0, 0
"BUSLVMAI14", 0.20785, 1,    128.648,  -31.3,    1.0721, 2,    128.664,  148.7,    1.0722, 0, 0, 0, 0
"BUSLVMAI15", 0.20785, 1,     128.63,  -31.2,    1.0719, 2,    128.643,  148.8,     1.072, 0, 0, 0, 0
"BUSLVMAI16", 0.20785, 1,    127.591,   88.2,    1.0633, 2,    127.609,  -91.8,    1.0634, 0, 0, 0, 0
"BUSLVMAI17", 0.20785, 1,    126.482,   87.6,     1.054, 2,    126.519,  -92.4,    1.0543, 0, 0, 0, 0
"BUSLVMAI18", 0.20785, 1,    127.509,   88.1,    1.0626, 2,    127.525,  -91.9,    1.0627, 0, 0, 0, 0
"BUSLVMAI19", 0.20785, 1,    127.579,   88.1,    1.0632, 2,    127.592,  -91.9,    1.0633, 0, 0, 0, 0
"BUSLVMAI20", 0.20785, 1,    127.665, -151.2,    1.0639, 2,      127.7,   28.8,    1.0642, 0, 0, 0, 0
"BUSLVMAI21", 0.20785, 1,    127.615,   88.2,    1.0635, 2,    127.631,  -91.8,    1.0636, 0, 0, 0, 0
"BUSLVMAI22", 0.20785, 1,    128.452,  -31.3,    1.0704, 2,    128.543,  148.7,    1.0712, 0, 0, 0, 0
"BUSLVMAI23", 0.20785, 1,    127.567,   88.2,    1.0631, 2,    127.583,  -91.8,    1.0632, 0, 0, 0, 0
"BUSLVMAI24", 0.20785, 1,    127.581,   88.2,    1.0632, 2,    127.597,  -91.8,    1.0633, 0, 0, 0, 0
"BUSLVMAI25", 0.20785, 1,    127.534,   88.1,    1.0628, 2,     127.55,  -91.9,    1.0629, 0, 0, 0, 0
"BUSLVMAI26", 0.20785, 1,    127.993, -151.1,    1.0666, 2,    128.008,   28.9,    1.0667, 0, 0, 0, 0
"BUSLVMAI27", 0.20785, 1,    128.069, -151.1,    1.0672, 2,    128.085,   28.9,    1.0674, 0, 0, 0, 0
"BUSLVMAI28", 0.20785, 1,     127.51,   88.1,    1.0626, 2,    127.525,  -91.9,    1.0627, 0, 0, 0, 0
"BUSLVMAI29", 0.20785, 1,     126.99,   87.7,    1.0583, 2,    127.006,  -92.4,    1.0584, 0, 0, 0, 0
"BUSLVMAI30", 0.20785, 1,    127.856, -151.1,    1.0655, 2,     127.87,   28.9,    1.0656, 0, 0, 0, 0
"BUSLVMAI31", 0.20785, 1,    127.589,   88.2,    1.0632, 2,    127.604,  -91.8,    1.0634, 0, 0, 0, 0
"BUSLVMAI32", 0.20785, 1,    128.305,  -31.4,    1.0692, 2,    128.318,  148.6,    1.0693, 0, 0, 0, 0
"BUSLVMAI33", 0.20785, 1,    127.482,   88.0,    1.0623, 2,    127.495,  -92.0,    1.0625, 0, 0, 0, 0
"BUSLVMAI34", 0.20785, 1,    126.048,   87.8,    1.0504, 2,    126.215,  -92.2,    1.0518, 0, 0, 0, 0
"BUSLVMAI35", 0.20785, 1,     127.52,   88.2,    1.0627, 2,    127.534,  -91.8,    1.0628, 0, 0, 0, 0
"BUSLVMAI36", 0.20785, 1,    127.519,   88.2,    1.0627, 2,    127.533,  -91.8,    1.0628, 0, 0, 0, 0
"BUSLVMAI37", 0.20785, 1,     127.51,   88.1,    1.0626, 2,    127.526,  -91.9,    1.0627, 0, 0, 0, 0
"BUSLVMAI38", 0.20785, 1,    125.342, -151.7,    1.0445, 2,    125.359,   28.3,    1.0447, 0, 0, 0, 0
"BUSLVMAI39", 0.20785, 1,    127.957, -151.2,    1.0663, 2,    127.971,   28.8,    1.0664, 0, 0, 0, 0
"BUSLVMAI40", 0.20785, 1,    127.194,   88.0,    1.0599, 2,     127.24,  -92.0,    1.0603, 0, 0, 0, 0
"BUSLVMAI41", 0.20785, 1,    128.312,  -31.4,    1.0693, 2,    128.328,  148.6,    1.0694, 0, 0, 0, 0
"BUSLVMAI42", 0.20785, 1,    128.361,  -31.3,    1.0697, 2,    128.377,  148.6,    1.0698, 0, 0, 0, 0
"BUSLVMAI43", 0.20785, 1,    128.355,  -31.3,    1.0696, 2,    128.371,  148.6,    1.0698, 0, 0, 0, 0
"BUSLVMAI44", 0.20785, 1,    127.371,   88.1,    1.0614, 2,    127.405,  -91.9,    1.0617, 0, 0, 0, 0
"BUSLVMAI45", 0.20785, 1,    127.318,   88.1,     1.061, 2,    127.332,  -91.9,    1.0611, 0, 0, 0, 0
"BUSLVMAI46", 0.20785, 1,    127.461,   88.2,    1.0622, 2,    127.477,  -91.8,    1.0623, 0, 0, 0, 0
"BUSLVMAI47", 0.20785, 1,    127.523,   88.2,    1.0627, 2,    127.537,  -91.8,    1.0628, 0, 0, 0, 0
"BUSLVMAI48", 0.20785, 1,    126.932,   87.9,    1.0578, 2,    126.961,  -92.1,     1.058, 0, 0, 0, 0
"BUSLVMAI49", 0.20785, 1,     128.33,  -31.3,    1.0694, 2,    128.345,  148.6,    1.0695, 0, 0, 0, 0
"BUSLVMAI50", 0.20785, 1,      126.7, -151.5,    1.0558, 2,    126.826,   28.5,    1.0569, 0, 0, 0, 0
"BUSLVMAI51", 0.20785, 1,    127.504,  -31.6,    1.0625, 2,     127.52,  148.4,    1.0627, 0, 0, 0, 0
"BUSLVMAI52", 0.20785, 1,    127.531,   88.2,    1.0628, 2,    127.544,  -91.8,    1.0629, 0, 0, 0, 0
"BUSLVMAI53", 0.20785, 1,    127.514,   88.2,    1.0626, 2,     127.53,  -91.8,    1.0627, 0, 0, 0, 0
"BUSLVMAI54", 0.20785, 1,    126.984,   88.0,    1.0582, 2,        127,  -92.0,    1.0583, 0, 0, 0, 0
"BUSLVMAI55", 0.20785, 1,     128.37,  -31.3,    1.0697, 2,    128.385,  148.7,    1.0699, 0, 0, 0, 0
"BUSLVMAI56", 0.20785, 1,    127.196,   88.0,      1.06, 2,    127.209,  -92.0,    1.0601, 0, 0, 0, 0
"BUSLVMAI57", 0.20785, 1,    127.445,   88.2,     1.062, 2,     127.46,  -91.8,    1.0622, 0, 0, 0, 0
"BUSLVMAI58", 0.20785, 1,    127.529,   88.2,    1.0627, 2,    127.544,  -91.8,    1.0629, 0, 0, 0, 0
"BUSLVMAI59", 0.20785, 1,     128.33,  -31.3,    1.0694, 2,    128.345,  148.6,    1.0695, 0, 0, 0, 0
"BUSLVMAI60", 0.20785, 1,    128.298,  -31.4,    1.0691, 2,    128.311,  148.6,    1.0693, 0, 0, 0, 0
"BUSLVMAI61", 0.20785, 1,    127.185,  -31.9,    1.0599, 2,    127.202,  148.1,      1.06, 0, 0, 0, 0
"BUSLVMAI62", 0.20785, 1,    127.919, -151.2,     1.066, 2,    127.934,   28.8,    1.0661, 0, 0, 0, 0
"BUSLVMAI63", 0.20785, 1,    128.011,  -31.5,    1.0668, 2,    128.033,  148.5,    1.0669, 0, 0, 0, 0
"BUSLVMAI64", 0.20785, 1,    128.026, -151.2,    1.0669, 2,    128.039,   28.8,     1.067, 0, 0, 0, 0
"BUSLVMAI65", 0.20785, 1,    128.309,  -31.4,    1.0692, 2,    128.323,  148.6,    1.0694, 0, 0, 0, 0
"BUSLVMAI66", 0.20785, 1,    127.519,   88.2,    1.0627, 2,    127.534,  -91.8,    1.0628, 0, 0, 0, 0
"BUSLVMAI67", 0.20785, 1,    128.025,  -31.5,    1.0669, 2,    128.041,  148.5,     1.067, 0, 0, 0, 0
"BUSLVMAI68", 0.20785, 1,    127.878,  -31.6,    1.0657, 2,    127.891,  148.4,    1.0658, 0, 0, 0, 0
"BUSLVMAI69", 0.20785, 1,    127.523,   88.2,    1.0627, 2,    127.536,  -91.8,    1.0628, 0, 0, 0, 0
"BUSLVMAI70", 0.20785, 1,     127.25,   88.0,    1.0604, 2,    127.274,  -92.0,    1.0606, 0, 0, 0, 0
"BUSLVMAI71", 0.20785, 1,    127.527,  -31.7,    1.0627, 2,    127.541,  148.3,    1.0628, 0, 0, 0, 0
"BUSLVMAI72", 0.20785, 1,    128.259,  -31.4,    1.0688, 2,    128.272,  148.6,    1.0689, 0, 0, 0, 0
"BUSLVMAI73", 0.20785, 1,    128.222,  -31.4,    1.0685, 2,    128.235,  148.6,    1.0686, 0, 0, 0, 0
"BUSLVMAI74", 0.20785, 1,    128.329,  -31.3,    1.0694, 2,    128.344,  148.6,    1.0695, 0, 0, 0, 0
"BUSLVMAI75", 0.20785, 1,    127.819, -151.2,    1.0652, 2,    127.833,   28.8,    1.0653, 0, 0, 0, 0
"BUSLVMAI76", 0.20785, 1,     127.52,   88.2,    1.0627, 2,    127.533,  -91.8,    1.0628, 0, 0, 0, 0
"BUSLVMAI77", 0.20785, 1,    127.826,  -31.5,    1.0652, 2,     127.84,  148.5,    1.0653, 0, 0, 0, 0
"BUSLVMAI78", 0.20785, 1,      128.3,  -31.4,    1.0692, 2,    128.313,  148.6,    1.0693, 0, 0, 0, 0
"BUSLVMAI79", 0.20785, 1,    127.451,   88.2,    1.0621, 2,    127.465,  -91.8,    1.0622, 0, 0, 0, 0
"BUSLVMAI80", 0.20785, 1,      126.5,   87.7,    1.0542, 2,    126.526,  -92.3,    1.0544, 0, 0, 0, 0
"BUSLVMAI81", 0.20785, 1,    127.519,   88.2,    1.0627, 2,    127.533,  -91.8,    1.0628, 0, 0, 0, 0
"BUSLVMAI82", 0.20785, 1,    127.349,   88.1,    1.0612, 2,    127.365,  -91.9,    1.0614, 0, 0, 0, 0
"BUSLVMAI83", 0.20785, 1,    127.941,  -31.5,    1.0662, 2,    127.962,  148.5,    1.0664, 0, 0, 0, 0
"BUSLVMAI84", 0.20785, 1,    127.345,   88.1,    1.0612, 2,    127.359,  -91.9,    1.0613, 0, 0, 0, 0
"BUSLVMAI85", 0.20785, 1,    128.107, -151.1,    1.0676, 2,    128.132,   28.9,    1.0678, 0, 0, 0, 0
"BUSLVMAI86", 0.20785, 1,    128.101,  -31.4,    1.0675, 2,    128.138,  148.6,    1.0678, 0, 0, 0, 0
"BUSLVMAI87", 0.20785, 1,    128.409,  -31.3,    1.0701, 2,    128.434,  148.7,    1.0703, 0, 0, 0, 0
"BUSLVMAI88", 0.20785, 1,    127.557,   88.2,     1.063, 2,     127.57,  -91.8,    1.0631, 0, 0, 0, 0
"BUSLVMAI89", 0.20785, 1,     127.52,   88.2,    1.0627, 2,    127.533,  -91.8,    1.0628, 0, 0, 0, 0
"BUSLVMAI90", 0.20785, 1,    127.158,   88.0,    1.0596, 2,    127.174,  -92.0,    1.0598, 0, 0, 0, 0
"BUSLVMAI91", 0.20785, 1,    127.528,   88.2,    1.0627, 2,    127.544,  -91.9,    1.0629, 0, 0, 0, 0
"BUSLVMAI92", 0.20785, 1,    128.027,  -31.5,    1.0669, 2,    128.046,  148.5,    1.0671, 0, 0, 0, 0
"BUSLVMAI93", 0.20785, 1,    127.346,   88.2,    1.0612, 2,    127.362,  -91.9,    1.0613, 0, 0, 0, 0
"BUSLVMAI94", 0.20785, 1,    127.329,   88.1,    1.0611, 2,    127.344,  -91.9,    1.0612, 0, 0, 0, 0
"BUSLVMAI95", 0.20785, 1,    127.445,   88.2,     1.062, 2,     127.46,  -91.8,    1.0622, 0, 0, 0, 0
"BUSLVMAI96", 0.20785, 1,    127.529,   88.1,    1.0627, 2,    127.543,  -91.9,    1.0629, 0, 0, 0, 0
"BUSLVMAI97", 0.20785, 1,     128.14, -151.1,    1.0678, 2,    128.155,   28.9,     1.068, 0, 0, 0, 0
"BUSLVMAI98", 0.20785, 1,     128.14, -151.1,    1.0678, 2,    128.155,   28.9,     1.068, 0, 0, 0, 0
"BUSLVMAI99", 0.20785, 1,    127.528,   88.1,    1.0627, 2,    127.542,  -91.9,    1.0629, 0, 0, 0, 0
"BUSLVMAI100", 0.20785, 1,    127.544,   88.2,    1.0629, 2,    127.558,  -91.8,     1.063, 0, 0, 0, 0
"BUSLVMAI101", 0.20785, 1,    127.442,   88.2,     1.062, 2,    127.458,  -91.8,    1.0622, 0, 0, 0, 0
"BUSLVMAI102", 0.20785, 1,    127.517,   88.2,    1.0626, 2,    127.533,  -91.8,    1.0628, 0, 0, 0, 0
"BUSLVMAI103", 0.20785, 1,    127.407,   88.2,    1.0617, 2,    127.422,  -91.8,    1.0619, 0, 0, 0, 0
"BUSLVMAI104", 0.20785, 1,    127.398,   88.2,    1.0616, 2,    127.412,  -91.9,    1.0618, 0, 0, 0, 0
"BUSLVMAI105", 0.20785, 1,    127.318,   88.1,     1.061, 2,    127.332,  -91.9,    1.0611, 0, 0, 0, 0
"BUSLVMAI106", 0.20785, 1,    128.288,  -31.4,    1.0691, 2,    128.302,  148.6,    1.0692, 0, 0, 0, 0
"BUSLVMAI107", 0.20785, 1,    127.522,   88.2,    1.0627, 2,    127.536,  -91.8,    1.0628, 0, 0, 0, 0
"BUSLVMAI108", 0.20785, 1,    127.455,   88.2,    1.0621, 2,     127.47,  -91.8,    1.0622, 0, 0, 0, 0
"BUSLVMAI109", 0.20785, 1,    127.889,  -31.5,    1.0657, 2,     127.95,  148.5,    1.0663, 0, 0, 0, 0
"BUSLVMAI110", 0.20785, 1,    127.965,  -31.5,    1.0664, 2,    127.985,  148.5,    1.0665, 0, 0, 0, 0
"BUSLVMAI111", 0.20785, 1,    128.075,  -31.4,    1.0673, 2,    128.091,  148.5,    1.0674, 0, 0, 0, 0
"BUSLVMAI112", 0.20785, 1,      128.2,  -31.4,    1.0683, 2,    128.216,  148.6,    1.0685, 0, 0, 0, 0
"BUSLVMAI113", 0.20785, 1,    128.099, -151.1,    1.0675, 2,    128.115,   28.9,    1.0676, 0, 0, 0, 0
"BUSLVMAI114", 0.20785, 1,    126.911,  -31.8,    1.0576, 2,    126.927,  148.1,    1.0577, 0, 0, 0, 0
"BUSLVMAI115", 0.20785, 1,    128.076,  -31.5,    1.0673, 2,    128.089,  148.5,    1.0674, 0, 0, 0, 0
"BUSLVMAI116", 0.20785, 1,    127.415,   88.2,    1.0618, 2,    127.428,  -91.8,    1.0619, 0, 0, 0, 0
"BUSLVMAI117", 0.20785, 1,    127.736,  -31.6,    1.0645, 2,    127.759,  148.4,    1.0647, 0, 0, 0, 0
"BUSLVMAI118", 0.20785, 1,    127.922,  -31.5,     1.066, 2,    127.938,  148.5,    1.0661, 0, 0, 0, 0
"BUSLVMAI119", 0.20785, 1,     127.24,   88.1,    1.0603, 2,    127.253,  -91.9,    1.0604, 0, 0, 0, 0
"BUSLVMAI120", 0.20785, 1,    128.075,  -31.4,    1.0673, 2,    128.089,  148.5,    1.0674, 0, 0, 0, 0
"BUSLVMAI121", 0.20785, 1,    128.173, -151.1,    1.0681, 2,    128.189,   28.9,    1.0682, 0, 0, 0, 0
"BUSLVMAI122", 0.20785, 1,    127.404,   88.2,    1.0617, 2,     127.42,  -91.8,    1.0618, 0, 0, 0, 0
"BUSLVMAI123", 0.20785, 1,    128.166, -151.1,     1.068, 2,     128.18,   28.9,    1.0682, 0, 0, 0, 0
"BUSLVMAI124", 0.20785, 1,    127.014,   88.0,    1.0584, 2,    127.058,  -92.0,    1.0588, 0, 0, 0, 0
"BUSLVMAI125", 0.20785, 1,    126.848,   88.0,    1.0571, 2,    126.869,  -92.0,    1.0572, 0, 0, 0, 0
"BUSLVMAI126", 0.20785, 1,    128.175, -151.1,    1.0681, 2,    128.189,   28.9,    1.0682, 0, 0, 0, 0
"BUSLVMAI127", 0.20785, 1,    127.406,   88.2,    1.0617, 2,     127.42,  -91.8,    1.0618, 0, 0, 0, 0
"BUSLVMAI128", 0.20785, 1,    127.407, -151.4,    1.0617, 2,    127.428,   28.6,    1.0619, 0, 0, 0, 0
"BUSLVMAI129", 0.20785, 1,    128.075,  -31.5,    1.0673, 2,    128.088,  148.5,    1.0674, 0, 0, 0, 0
"BUSLVMAI130", 0.20785, 1,    128.231,  -31.4,    1.0686, 2,    128.246,  148.6,    1.0687, 0, 0, 0, 0
"BUSLVMAI131", 0.20785, 1,    127.279,  -31.7,    1.0607, 2,    127.302,  148.3,    1.0609, 0, 0, 0, 0
"BUSLVMAI132", 0.20785, 1,    128.073,  -31.5,    1.0673, 2,    128.086,  148.5,    1.0674, 0, 0, 0, 0
"BUSLVMAI133", 0.20785, 1,    127.423,   88.2,    1.0619, 2,    127.441,  -91.8,     1.062, 0, 0, 0, 0
"BUSLVMAI134", 0.20785, 1,     127.22,   88.1,    1.0602, 2,     127.24,  -91.9,    1.0603, 0, 0, 0, 0
"BUSLVMAI135", 0.20785, 1,    127.389,   88.2,    1.0616, 2,    127.405,  -91.9,    1.0617, 0, 0, 0, 0
"BUSLVMAI136", 0.20785, 1,     127.76,  -31.6,    1.0647, 2,    127.786,  148.4,    1.0649, 0, 0, 0, 0
"BUSLVMAI137", 0.20785, 1,    127.874, -151.2,    1.0656, 2,    127.887,   28.8,    1.0657, 0, 0, 0, 0
"BUSLVMAI138", 0.20785, 1,    127.948, -151.2,    1.0662, 2,    127.971,   28.8,    1.0664, 0, 0, 0, 0
"BUSLVMAI139", 0.20785, 1,    127.564, -151.4,     1.063, 2,    127.581,   28.6,    1.0632, 0, 0, 0, 0
"BUSLVMAI140", 0.20785, 1,    127.952,  -31.5,    1.0663, 2,    127.968,  148.5,    1.0664, 0, 0, 0, 0
"BUSLVMAI141", 0.20785, 1,    128.175, -151.1,    1.0681, 2,    128.189,   28.9,    1.0682, 0, 0, 0, 0
"BUSLVMAI142", 0.20785, 1,    127.949, -151.2,    1.0662, 2,    127.963,   28.8,    1.0664, 0, 0, 0, 0
"BUSLVMAI143", 0.20785, 1,    128.077, -151.1,    1.0673, 2,    128.093,   28.9,    1.0674, 0, 0, 0, 0
"BUSLVMAI144", 0.20785, 1,    127.406,   88.2,    1.0617, 2,    127.422,  -91.8,    1.0618, 0, 0, 0, 0
"BUSLVMAI145", 0.20785, 1,     128.14,  -31.4,    1.0678, 2,    128.156,  148.6,     1.068, 0, 0, 0, 0
"BUSLVMAI146", 0.20785, 1,    128.158, -151.1,     1.068, 2,    128.172,   28.9,    1.0681, 0, 0, 0, 0
"BUSLVMAI147", 0.20785, 1,    127.566,  -31.6,    1.0631, 2,    127.585,  148.4,    1.0632, 0, 0, 0, 0
"BUSLVMAI148", 0.20785, 1,    127.338,   88.2,    1.0612, 2,    127.354,  -91.8,    1.0613, 0, 0, 0, 0
"BUSLVMAI149", 0.20785, 1,    127.919, -151.2,     1.066, 2,    127.932,   28.8,    1.0661, 0, 0, 0, 0
"BUSLVMAI150", 0.20785, 1,    127.476,  -31.7,    1.0623, 2,      127.5,  148.3,    1.0625, 0, 0, 0, 0
"BUSLVMAI151", 0.20785, 1,    127.555, -151.3,     1.063, 2,    127.568,   28.7,    1.0631, 0, 0, 0, 0
"BUSLVMAI152", 0.20785, 1,    128.065,  -31.4,    1.0672, 2,     128.08,  148.5,    1.0673, 0, 0, 0, 0
"BUSLVMAI153", 0.20785, 1,    126.868,   88.0,    1.0572, 2,    126.884,  -92.0,    1.0574, 0, 0, 0, 0
"BUSLVMAI154", 0.20785, 1,    127.415,   88.2,    1.0618, 2,    127.431,  -91.8,    1.0619, 0, 0, 0, 0
"BUSLVMAI155", 0.20785, 1,    127.881,  -31.5,    1.0657, 2,    127.895,  148.5,    1.0658, 0, 0, 0, 0
"BUSLVMAI156", 0.20785, 1,    128.081,  -31.4,    1.0673, 2,    128.094,  148.5,    1.0674, 0, 0, 0, 0
"BUSLVMAI157", 0.20785, 1,    127.428,  -31.7,    1.0619, 2,    127.444,  148.3,     1.062, 0, 0, 0, 0
"BUSLVMAI158", 0.20785, 1,    128.125, -151.1,    1.0677, 2,    128.138,   28.8,    1.0678, 0, 0, 0, 0
"BUSLVMAI159", 0.20785, 1,    128.118, -151.1,    1.0677, 2,    128.131,   28.9,    1.0678, 0, 0, 0, 0
"BUSLVMAI160", 0.20785, 1,    127.879,  -31.5,    1.0657, 2,    127.897,  148.5,    1.0658, 0, 0, 0, 0
"BUSLVMAI161", 0.20785, 1,    127.861,  -31.5,    1.0655, 2,    127.887,  148.5,    1.0657, 0, 0, 0, 0
"BUSLVMAI162", 0.20785, 1,    127.892,  -31.5,    1.0658, 2,    127.908,  148.5,    1.0659, 0, 0, 0, 0
"BUSLVMAI163", 0.20785, 1,    128.065,  -31.4,    1.0672, 2,     128.08,  148.5,    1.0673, 0, 0, 0, 0
"BUSLVMAI164", 0.20785, 1,    128.263,  -31.4,    1.0689, 2,    128.276,  148.6,     1.069, 0, 0, 0, 0
"BUSLVMAI165", 0.20785, 1,    127.587,  -31.6,    1.0632, 2,    127.633,  148.4,    1.0636, 0, 0, 0, 0
"BUSLVMAI166", 0.20785, 1,    127.866,  -31.6,    1.0656, 2,    127.889,  148.4,    1.0657, 0, 0, 0, 0
"BUSLVMAI167", 0.20785, 1,    127.239,   88.1,    1.0603, 2,    127.268,  -91.9,    1.0606, 0, 0, 0, 0
"BUSLVMAI168", 0.20785, 1,    127.322,   88.2,     1.061, 2,    127.337,  -91.8,    1.0611, 0, 0, 0, 0
"BUSLVMAI169", 0.20785, 1,    126.414,  -31.7,    1.0534, 2,    126.432,  148.2,    1.0536, 0, 0, 0, 0
"BUSLVMAI170", 0.20785, 1,     128.07,  -31.5,    1.0673, 2,    128.084,  148.5,    1.0674, 0, 0, 0, 0
"BUSLVMAI171", 0.20785, 1,    127.708,  -31.5,    1.0642, 2,    127.757,  148.4,    1.0646, 0, 0, 0, 0
"BUSLVMAI172", 0.20785, 1,    127.112,   88.0,    1.0593, 2,    127.127,  -92.0,    1.0594, 0, 0, 0, 0
"BUSLVMAI173", 0.20785, 1,    127.402,   88.2,    1.0617, 2,    127.418,  -91.8,    1.0618, 0, 0, 0, 0
"BUSLVMAI174", 0.20785, 1,    127.771,  -31.5,    1.0648, 2,    127.795,  148.4,     1.065, 0, 0, 0, 0
"BUSLVMAI175", 0.20785, 1,    127.564,  -31.7,     1.063, 2,    127.578,  148.3,    1.0632, 0, 0, 0, 0
"BUSLVMAI176", 0.20785, 1,    127.316,   88.1,     1.061, 2,    127.329,  -91.9,    1.0611, 0, 0, 0, 0
"BUSLVMAI177", 0.20785, 1,    127.397,   88.2,    1.0616, 2,     127.41,  -91.8,    1.0617, 0, 0, 0, 0
"BUSLVMAI178", 0.20785, 1,    128.118, -151.2,    1.0677, 2,    128.131,   28.8,    1.0678, 0, 0, 0, 0
"BUSLVMAI179", 0.20785, 1,    128.017, -151.2,    1.0668, 2,     128.03,   28.8,    1.0669, 0, 0, 0, 0
"BUSLVMAI180", 0.20785, 1,    128.081,  -31.4,    1.0673, 2,    128.094,  148.5,    1.0674, 0, 0, 0, 0
"BUSLVMAI181", 0.20785, 1,    128.069,  -31.5,    1.0672, 2,    128.083,  148.5,    1.0674, 0, 0, 0, 0
"BUSLVMAI182", 0.20785, 1,    127.355,  -31.7,    1.0613, 2,    127.473,  148.3,    1.0623, 0, 0, 0, 0
"BUSLVMAI183", 0.20785, 1,    127.319,   88.2,     1.061, 2,    127.333,  -91.9,    1.0611, 0, 0, 0, 0
"BUSLVMAI184", 0.20785, 1,    128.234,  -31.4,    1.0686, 2,    128.247,  148.6,    1.0687, 0, 0, 0, 0
"BUSLVMAI185", 0.20785, 1,     127.79, -151.2,    1.0649, 2,    127.803,   28.7,     1.065, 0, 0, 0, 0
"BUSLVMAI186", 0.20785, 1,    127.421,   88.2,    1.0618, 2,    127.436,  -91.8,     1.062, 0, 0, 0, 0
"BUSLVMAI187", 0.20785, 1,    127.364,   88.2,    1.0614, 2,    127.377,  -91.8,    1.0615, 0, 0, 0, 0
"BUSLVMAI188", 0.20785, 1,    128.129, -151.1,    1.0677, 2,    128.145,   28.9,    1.0679, 0, 0, 0, 0
"BUSLVMAI189", 0.20785, 1,    128.076,  -31.4,    1.0673, 2,    128.092,  148.5,    1.0674, 0, 0, 0, 0
"BUSLVMAI190", 0.20785, 1,    128.121, -151.1,    1.0677, 2,    128.138,   28.9,    1.0678, 0, 0, 0, 0
"BUSLVMAI191", 0.20785, 1,    127.415,   88.2,    1.0618, 2,    127.431,  -91.8,    1.0619, 0, 0, 0, 0
"BUSLVMAI192", 0.20785, 1,     128.06,  -31.5,    1.0672, 2,    128.077,  148.5,    1.0673, 0, 0, 0, 0
"BUSLVMAI193", 0.20785, 1,    128.071,  -31.4,    1.0673, 2,    128.087,  148.5,    1.0674, 0, 0, 0, 0
"BUSLVMAI194", 0.20785, 1,    127.328,   88.2,    1.0611, 2,    127.343,  -91.8,    1.0612, 0, 0, 0, 0
"BUSLVMAI195", 0.20785, 1,    127.417,   88.2,    1.0618, 2,    127.433,  -91.8,    1.0619, 0, 0, 0, 0
"BUSLVMAI196", 0.20785, 1,    128.097, -151.1,    1.0675, 2,    128.113,   28.9,    1.0676, 0, 0, 0, 0
"BUSLVMAI197", 0.20785, 1,    127.966, -151.2,    1.0664, 2,     127.98,   28.8,    1.0665, 0, 0, 0, 0
"BUSLVMAI198", 0.20785, 1,    128.097, -151.1,    1.0675, 2,    128.112,   28.9,    1.0676, 0, 0, 0, 0
"BUSLVMAI199", 0.20785, 1,    128.098, -151.1,    1.0675, 2,    128.113,   28.9,    1.0676, 0, 0, 0, 0
"BUSLVMAI200", 0.20785, 1,     128.06,  -31.5,    1.0672, 2,    128.076,  148.5,    1.0673, 0, 0, 0, 0
...
